omf/data/Model/public/Demo VoltageDrop - ACEC Geo/voltDump.csv
# voltDump.csv run at 2000-01-01 00:00:00 PST on 4158 nodes
node_name,voltA_real,voltA_imag,voltB_real,voltB_imag,voltC_real,voltC_imag
FRIENDSHIP,7200.000000,0.000000,-3600.000000,-6235.382907,-3600.000000,6235.382907
S1706-04-005,-119.755364,-208.083599,-119.755364,-208.083599,0.000000,0.000000
S1806-33-070,-116.657718,204.378286,-116.657718,204.378286,0.000000,0.000000
S1806-32-140,-116.657718,204.378286,-116.657718,204.378286,0.000000,0.000000
S1806-32-127,239.057687,-1.410918,239.057687,-1.410918,0.000000,0.000000
S1806-33-071,-119.235203,-208.533573,-119.235203,-208.533573,0.000000,0.000000
S1806-32-038,-119.235203,-208.533573,-119.235203,-208.533573,0.000000,0.000000
S1806-32-132,-119.198523,-208.549976,-119.198523,-208.549976,0.000000,0.000000
S1806-32-033,-119.198523,-208.549976,-119.198523,-208.549976,0.000000,0.000000
S1806-33-052,-115.739875,204.343303,-115.739875,204.343303,0.000000,0.000000
S1806-32-001,-118.863943,-208.701191,-118.863943,-208.701191,0.000000,0.000000
S1806-29-001,239.450428,-2.047453,239.450428,-2.047453,0.000000,0.000000
S1806-28-002,-118.554798,-208.853757,-118.554798,-208.853757,0.000000,0.000000
S1806-29-003,-118.291611,-209.041254,-118.291611,-209.041254,0.000000,0.000000
S1806-29-008,-118.193044,-209.090252,-118.193044,-209.090252,0.000000,0.000000
S1806-28-014,-118.146675,-209.113299,-118.146675,-209.113299,0.000000,0.000000
S1806-29-010,-118.098741,-209.137144,-118.098741,-209.137144,0.000000,0.000000
S1806-21-011,239.745100,-3.171044,239.745100,-3.171044,0.000000,0.000000
S1806-21-004,239.745100,-3.171044,239.745100,-3.171044,0.000000,0.000000
S1806-21-020,-117.805331,-209.280915,-117.805331,-209.280915,0.000000,0.000000
S1806-21-007,-117.756377,-209.304979,-117.756377,-209.304979,0.000000,0.000000
S1806-21-024,-117.757207,-209.304030,-117.757207,-209.304030,0.000000,0.000000
S1806-21-022,-117.757207,-209.304030,-117.757207,-209.304030,0.000000,0.000000
S1806-20-048,-117.756368,-209.304849,-117.756368,-209.304849,0.000000,0.000000
S1806-21-005,-117.657766,-209.353521,-117.657766,-209.353521,0.000000,0.000000
S1806-20-002,-117.657766,-209.353521,-117.657766,-209.353521,0.000000,0.000000
S1806-16-004,-117.176341,-209.488606,-117.176341,-209.488606,0.000000,0.000000
S1806-16-013,-117.175283,-209.470533,-117.175283,-209.470533,0.000000,0.000000
S1806-22-047,-117.173709,-209.443547,-117.173709,-209.443547,0.000000,0.000000
S1806-22-018,-117.172951,-209.416030,-117.172951,-209.416030,0.000000,0.000000
S1806-22-012,-117.172951,-209.416030,-117.172951,-209.416030,0.000000,0.000000
S1806-22-016,-117.171904,-209.413584,-117.171904,-209.413584,0.000000,0.000000
S1806-22-005,-117.171584,-209.408652,-117.171584,-209.408652,0.000000,0.000000
S1806-22-009,-117.171269,-209.403804,-117.171269,-209.403804,0.000000,0.000000
S1806-22-046,-117.171102,-209.401227,-117.171102,-209.401227,0.000000,0.000000
S1806-22-003,-117.170954,-209.398959,-117.170954,-209.398959,0.000000,0.000000
S1806-22-043,-117.171665,-209.396240,-117.171665,-209.396240,0.000000,0.000000
S1806-22-002,-117.171665,-209.396240,-117.171665,-209.396240,0.000000,0.000000
S1806-22-004,-117.170467,-209.391496,-117.170467,-209.391496,0.000000,0.000000
S1806-21-015,-117.170451,-209.391241,-117.170451,-209.391241,0.000000,0.000000
S1806-22-027,-117.170278,-209.388610,-117.170278,-209.388610,0.000000,0.000000
S1806-22-025,-117.170033,-209.384862,-117.170033,-209.384862,0.000000,0.000000
S1806-22-013,-117.169575,-209.377860,-117.169575,-209.377860,0.000000,0.000000
S1806-22-010,-117.168032,-209.354230,-117.168032,-209.354230,0.000000,0.000000
S1806-22-001,-117.167411,-209.344706,-117.167411,-209.344706,0.000000,0.000000
S1806-22-045,-117.167093,-209.339711,-117.167093,-209.339711,0.000000,0.000000
S1806-22-019,-117.167091,-209.339668,-117.167091,-209.339668,0.000000,0.000000
S1806-22-007,-117.167043,-209.338840,-117.167043,-209.338840,0.000000,0.000000
S1806-22-039,-117.167840,-209.337362,-117.167840,-209.337362,0.000000,0.000000
S1806-22-030,-117.167840,-209.337362,-117.167840,-209.337362,0.000000,0.000000
S1806-22-033,-117.166958,-209.337397,-117.166958,-209.337397,0.000000,0.000000
S1806-22-024,-117.166931,-209.336920,-117.166931,-209.336920,0.000000,0.000000
S1806-22-032,-117.167757,-209.335952,-117.167757,-209.335952,0.000000,0.000000
S1806-22-011,-117.167757,-209.335952,-117.167757,-209.335952,0.000000,0.000000
S1806-22-023,-117.167722,-209.335371,-117.167722,-209.335371,0.000000,0.000000
S1806-22-022,-117.167722,-209.335371,-117.167722,-209.335371,0.000000,0.000000
S1806-22-021,-117.166855,-209.335690,-117.166855,-209.335690,0.000000,0.000000
S1806-22-036,-58.583420,-104.667734,-58.583420,-104.667734,0.000000,0.000000
S1806-22-040,-117.166830,-209.335314,-117.166830,-209.335314,0.000000,0.000000
S1806-22-035,-117.166828,-209.335279,-117.166828,-209.335279,0.000000,0.000000
S1806-22-031,-117.166953,-209.337314,-117.166953,-209.337314,0.000000,0.000000
S1806-27-009,-117.167021,-209.338825,-117.167021,-209.338825,0.000000,0.000000
S1806-26-002,-117.160561,-209.288189,-117.160561,-209.288189,0.000000,0.000000
S1806-14-005,-117.156832,-209.248502,-117.156832,-209.248502,0.000000,0.000000
S1806-14-012,-117.156810,-209.248149,-117.156810,-209.248149,0.000000,0.000000
S1806-14-015,-117.156733,-209.246923,-117.156733,-209.246923,0.000000,0.000000
S1806-15-004,-117.156696,-209.246321,-117.156696,-209.246321,0.000000,0.000000
S1806-15-003,-117.156690,-209.246224,-117.156690,-209.246224,0.000000,0.000000
S1806-14-004,-117.155692,-209.242613,-117.155692,-209.242613,0.000000,0.000000
S1806-14-002,-117.153963,-209.233681,-117.153963,-209.233681,0.000000,0.000000
S1806-14-011,-117.153858,-209.232146,-117.153858,-209.232146,0.000000,0.000000
S1806-14-013,-117.153848,-209.231987,-117.153848,-209.231987,0.000000,0.000000
S1806-14-007,-117.153834,-209.231792,-117.153834,-209.231792,0.000000,0.000000
S1806-14-014,-117.153236,-209.223026,-117.153236,-209.223026,0.000000,0.000000
S1806-14-009,-117.153138,-209.221568,-117.153138,-209.221568,0.000000,0.000000
S1806-13-003,-117.153083,-209.220774,-117.153083,-209.220774,0.000000,0.000000
S1806-13-002,-117.153054,-209.220355,-117.153054,-209.220355,0.000000,0.000000
S1806-13-004,-117.152985,-209.219336,-117.152985,-209.219336,0.000000,0.000000
S1806-12-001,-117.152959,-209.218940,-117.152959,-209.218940,0.000000,0.000000
S1806-13-001,-117.152959,-209.218961,-117.152959,-209.218961,0.000000,0.000000
S1806-11-003,-117.153388,-209.225241,-117.153388,-209.225241,0.000000,0.000000
S1806-10-002,-117.153323,-209.224297,-117.153323,-209.224297,0.000000,0.000000
S1806-14-001,-117.154593,-209.236937,-117.154593,-209.236937,0.000000,0.000000
S1806-14-010,-117.154567,-209.236630,-117.154567,-209.236630,0.000000,0.000000
S1806-23-005,-117.157107,-209.252903,-117.157107,-209.252903,0.000000,0.000000
S1806-23-004,-117.157311,-209.256181,-117.157311,-209.256181,0.000000,0.000000
S1806-23-003,-117.158446,-209.274350,-117.158446,-209.274350,0.000000,0.000000
S1806-23-002,-117.158241,-209.276102,-117.158241,-209.276102,0.000000,0.000000
S1806-25-002,-117.157593,-209.271732,-117.157593,-209.271732,0.000000,0.000000
S1806-24-001,-117.157638,-209.271752,-117.157638,-209.271752,0.000000,0.000000
S1806-25-001,-117.157664,-209.271444,-117.157664,-209.271444,0.000000,0.000000
S1806-26-003,-117.158658,-209.278304,-117.158658,-209.278304,0.000000,0.000000
S1806-22-017,-117.172468,-209.422324,-117.172468,-209.422324,0.000000,0.000000
S1806-21-019,-117.173927,-209.432078,-117.173927,-209.432078,0.000000,0.000000
S1806-21-008,-117.173927,-209.432078,-117.173927,-209.432078,0.000000,0.000000
S1806-22-034,-117.173282,-209.436207,-117.173282,-209.436207,0.000000,0.000000
S1806-15-001,-117.174030,-209.449044,-117.174030,-209.449044,0.000000,0.000000
S1806-16-010,-117.175301,-209.470819,-117.175301,-209.470819,0.000000,0.000000
S1806-16-006,240.495443,-4.101561,240.495443,-4.101561,0.000000,0.000000
S1806-16-001,240.495443,-4.101561,240.495443,-4.101561,0.000000,0.000000
S1806-17-002,240.573671,-4.109020,240.573671,-4.109020,0.000000,0.000000
S1806-17-016,-108.661908,203.002428,-108.661908,203.002428,0.000000,0.000000
S1806-17-004,240.808874,-4.134341,240.808874,-4.134341,0.000000,0.000000
S1806-17-009,120.404280,-2.067241,120.404280,-2.067241,0.000000,0.000000
S1806-17-012,240.808348,-4.134576,240.808348,-4.134576,0.000000,0.000000
S1806-17-005,240.808242,-4.134623,240.808242,-4.134623,0.000000,0.000000
S1806-16-002,-116.680571,-209.524812,-116.680571,-209.524812,0.000000,0.000000
S1806-17-018,241.200884,-4.175801,241.200884,-4.175801,0.000000,0.000000
S1806-08-016,241.446562,-4.201621,241.446562,-4.201621,0.000000,0.000000
S1806-17-026,-105.655561,203.035095,-105.655561,203.035095,0.000000,0.000000
S1806-08-006,-104.001446,202.719461,-104.001446,202.719461,0.000000,0.000000
S1806-08-001,-114.914822,-209.533636,-114.914822,-209.533636,0.000000,0.000000
S1806-05-086,-102.637834,202.756668,-102.637834,202.756668,0.000000,0.000000
S1806-05-001,-102.637834,202.756668,-102.637834,202.756668,0.000000,0.000000
S1806-05-158,-102.492791,202.744306,-102.492791,202.744306,0.000000,0.000000
S1806-05-151,243.074038,-4.439909,243.074038,-4.439909,0.000000,0.000000
S1806-05-093,121.637967,-2.252139,121.637967,-2.252139,0.000000,0.000000
S1806-05-062,121.637957,-2.252143,121.637957,-2.252143,0.000000,0.000000
S1906-33-002,243.397497,-4.540344,243.397497,-4.540344,0.000000,0.000000
S1906-32-020,243.466663,-4.560196,243.466663,-4.560196,0.000000,0.000000
S1906-32-006,243.466640,-4.560206,243.466640,-4.560206,0.000000,0.000000
S1906-32-005,-114.141862,-209.575205,-114.141862,-209.575205,0.000000,0.000000
S1906-32-014,-101.103251,202.699036,-101.103251,202.699036,0.000000,0.000000
S1906-32-001,-101.103251,202.699036,-101.103251,202.699036,0.000000,0.000000
S1906-32-002,-101.135561,202.688136,-101.135561,202.688136,0.000000,0.000000
S1906-32-010,243.613207,-4.602743,243.613207,-4.602743,0.000000,0.000000
S1906-32-057,243.613138,-4.602775,243.613138,-4.602775,0.000000,0.000000
S1906-32-063,-100.878354,202.680715,-100.878354,202.680715,0.000000,0.000000
S1906-32-011,-100.878354,202.680715,-100.878354,202.680715,0.000000,0.000000
S1906-32-045,-113.965176,-209.593218,-113.965176,-209.593218,0.000000,0.000000
S1906-32-018,-113.965052,-209.587630,-113.965052,-209.587630,0.000000,0.000000
S1906-32-060,-113.966739,-209.585036,-113.966739,-209.585036,0.000000,0.000000
S1906-32-055,-113.966739,-209.585036,-113.966739,-209.585036,0.000000,0.000000
S1906-32-035,-113.966739,-209.585036,-113.966739,-209.585036,0.000000,0.000000
S1906-32-050,-113.967548,-209.582144,-113.967548,-209.582144,0.000000,0.000000
S1906-32-039,-113.967548,-209.582144,-113.967548,-209.582144,0.000000,0.000000
S1906-32-033,-113.967548,-209.582144,-113.967548,-209.582144,0.000000,0.000000
S1906-32-027,-113.967548,-209.582144,-113.967548,-209.582144,0.000000,0.000000
S1906-32-062,-113.968379,-209.580331,-113.968379,-209.580331,0.000000,0.000000
S1906-32-061,-113.968379,-209.580331,-113.968379,-209.580331,0.000000,0.000000
S1906-32-042,-113.968379,-209.580331,-113.968379,-209.580331,0.000000,0.000000
S1906-32-037,-113.968379,-209.580331,-113.968379,-209.580331,0.000000,0.000000
S1906-32-026,-113.968379,-209.580331,-113.968379,-209.580331,0.000000,0.000000
S1906-32-043,-113.965762,-209.580502,-113.965762,-209.580502,0.000000,0.000000
S1906-32-040,-113.965762,-209.580502,-113.965762,-209.580502,0.000000,0.000000
S1906-33-013,-113.964880,-209.580425,-113.964880,-209.580425,0.000000,0.000000
S1906-32-022,-113.965734,-209.579343,-113.965734,-209.579343,0.000000,0.000000
S1906-32-019,-113.965734,-209.579343,-113.965734,-209.579343,0.000000,0.000000
S1906-32-051,-113.965720,-209.578721,-113.965720,-209.578721,0.000000,0.000000
S1906-32-029,-113.965720,-209.578721,-113.965720,-209.578721,0.000000,0.000000
S1906-32-047,-113.966550,-209.576865,-113.966550,-209.576865,0.000000,0.000000
S1906-32-044,-113.966550,-209.576865,-113.966550,-209.576865,0.000000,0.000000
S1906-32-025,-113.966550,-209.576865,-113.966550,-209.576865,0.000000,0.000000
S1906-32-059,-113.967396,-209.575756,-113.967396,-209.575756,0.000000,0.000000
S1906-32-036,-113.967396,-209.575756,-113.967396,-209.575756,0.000000,0.000000
S1906-32-032,-113.967396,-209.575756,-113.967396,-209.575756,0.000000,0.000000
S1906-32-021,-113.967396,-209.575756,-113.967396,-209.575756,0.000000,0.000000
S1906-32-056,-113.966531,-209.576150,-113.966531,-209.576150,0.000000,0.000000
S1906-32-030,-113.966531,-209.576150,-113.966531,-209.576150,0.000000,0.000000
S1906-32-024,-113.966531,-209.576150,-113.966531,-209.576150,0.000000,0.000000
S1906-32-048,-56.982405,-104.788662,-56.982405,-104.788662,0.000000,0.000000
S1906-32-064,-113.964801,-209.577143,-113.964801,-209.577143,0.000000,0.000000
S1906-32-008,-56.970416,-104.799414,-56.970416,-104.799414,0.000000,0.000000
S1906-32-053,-56.959920,-104.800987,-56.959920,-104.800987,0.000000,0.000000
S1906-32-054,243.785237,-4.656121,243.785237,-4.656121,0.000000,0.000000
S1906-32-012,243.785237,-4.656121,243.785237,-4.656121,0.000000,0.000000
S1906-32-041,243.810564,-4.662850,243.810564,-4.662850,0.000000,0.000000
S1906-32-003,-100.054320,202.604193,-100.054320,202.604193,0.000000,0.000000
S1906-30-005,-99.406440,201.935576,-99.406440,201.935576,0.000000,0.000000
S1906-30-023,-99.308661,201.862013,-99.308661,201.862013,0.000000,0.000000
S1906-30-030,-99.222637,201.811616,-99.222637,201.811616,0.000000,0.000000
S1906-30-025,-99.222637,201.811616,-99.222637,201.811616,0.000000,0.000000
S1906-30-015,-99.072992,201.696240,-99.072992,201.696240,0.000000,0.000000
S1906-30-038,-98.978590,201.616673,-98.978590,201.616673,0.000000,0.000000
S1906-30-004,-98.800980,201.488171,-98.800980,201.488171,0.000000,0.000000
S1906-31-005,-98.696604,201.410072,-98.696604,201.410072,0.000000,0.000000
S1906-31-007,-98.602194,201.344484,-98.602194,201.344484,0.000000,0.000000
S1906-30-002,-98.434458,201.227566,-98.434458,201.227566,0.000000,0.000000
S1906-30-046,-98.342842,201.148973,-98.342842,201.148973,0.000000,0.000000
S1906-31-013,-98.209484,201.076326,-98.209484,201.076326,0.000000,0.000000
S1906-31-006,-98.229816,201.064940,-98.229816,201.064940,0.000000,0.000000
S1906-31-010,-98.208707,201.050266,-98.208707,201.050266,0.000000,0.000000
S1906-31-012,-98.169711,201.053121,-98.169711,201.053121,0.000000,0.000000
S1906-31-011,-98.189208,201.038554,-98.189208,201.038554,0.000000,0.000000
S1906-31-009,-98.180804,201.038771,-98.180804,201.038771,0.000000,0.000000
S1906-31-002,-98.190030,201.035248,-98.190030,201.035248,0.000000,0.000000
S1806-06-017,-98.189313,201.034700,-98.189313,201.034700,0.000000,0.000000
S1806-06-011,-98.188717,201.035017,-98.188717,201.035017,0.000000,0.000000
S1906-31-003,-98.167871,201.048000,-98.167871,201.048000,0.000000,0.000000
S1906-30-044,-98.220641,201.059300,-98.220641,201.059300,0.000000,0.000000
S1906-30-001,-97.954195,200.867732,-97.954195,200.867732,0.000000,0.000000
S1906-31-001,-97.930472,200.844767,-97.930472,200.844767,0.000000,0.000000
S1905-36-036,-97.689921,200.666370,-97.689921,200.666370,0.000000,0.000000
S1905-36-035,-97.672854,200.669888,-97.672854,200.669888,0.000000,0.000000
S1905-25-009,-97.439068,200.528550,-97.439068,200.528550,0.000000,0.000000
S1905-25-002,-97.463567,200.518989,-97.463567,200.518989,0.000000,0.000000
S1905-36-012,-97.182488,200.324608,-97.182488,200.324608,0.000000,0.000000
S1905-36-031,-97.142639,200.266114,-97.142639,200.266114,0.000000,0.000000
S1905-36-033,-96.964448,200.173238,-96.964448,200.173238,0.000000,0.000000
S1905-25-013,-96.964448,200.173238,-96.964448,200.173238,0.000000,0.000000
S1905-25-010,-96.964448,200.173238,-96.964448,200.173238,0.000000,0.000000
S1905-36-002,-96.853863,200.083182,-96.853863,200.083182,0.000000,0.000000
S1905-36-006,-96.833016,200.042040,-96.833016,200.042040,0.000000,0.000000
S1905-36-030,-96.742021,200.008816,-96.742021,200.008816,0.000000,0.000000
S1905-36-026,-96.742021,200.008816,-96.742021,200.008816,0.000000,0.000000
S1905-36-020,-96.742021,200.008816,-96.742021,200.008816,0.000000,0.000000
S1905-36-034,-96.626514,199.972129,-96.626514,199.972129,0.000000,0.000000
S1905-25-003,-96.626514,199.972129,-96.626514,199.972129,0.000000,0.000000
S1905-36-010,-96.652036,199.901079,-96.652036,199.901079,0.000000,0.000000
S1905-36-025,-96.609287,199.890155,-96.609287,199.890155,0.000000,0.000000
S1905-36-018,-96.609287,199.890155,-96.609287,199.890155,0.000000,0.000000
S1905-36-007,-96.609287,199.890155,-96.609287,199.890155,0.000000,0.000000
S1905-36-005,-96.609287,199.890155,-96.609287,199.890155,0.000000,0.000000
S1905-36-032,-96.514444,199.817151,-96.514444,199.817151,0.000000,0.000000
S1905-36-023,-96.490187,199.809225,-96.490187,199.809225,0.000000,0.000000
S1905-36-021,-96.490187,199.809225,-96.490187,199.809225,0.000000,0.000000
S1905-36-003,-96.480375,199.800044,-96.480375,199.800044,0.000000,0.000000
S1905-35-002,-96.491543,199.788810,-96.491543,199.788810,0.000000,0.000000
S1905-36-016,-96.486327,199.782001,-96.486327,199.782001,0.000000,0.000000
S1905-36-015,-96.486327,199.782001,-96.486327,199.782001,0.000000,0.000000
S1905-36-027,-96.415781,199.740461,-96.415781,199.740461,0.000000,0.000000
S1905-35-007,-96.387237,199.715164,-96.387237,199.715164,0.000000,0.000000
S1905-35-011,-96.384420,199.715855,-96.384420,199.715855,0.000000,0.000000
S1905-35-004,-96.384420,199.715855,-96.384420,199.715855,0.000000,0.000000
S1905-35-006,-96.385443,199.714415,-96.385443,199.714415,0.000000,0.000000
S1905-35-005,-96.385443,199.714415,-96.385443,199.714415,0.000000,0.000000
S1905-36-017,-96.383962,199.701862,-96.383962,199.701862,0.000000,0.000000
S1905-36-013,-96.314985,199.715053,-96.314985,199.715053,0.000000,0.000000
S1905-36-001,-96.314985,199.715053,-96.314985,199.715053,0.000000,0.000000
S1905-35-008,-96.314985,199.715053,-96.314985,199.715053,0.000000,0.000000
S1905-36-037,-96.355470,199.686041,-96.355470,199.686041,0.000000,0.000000
S1905-36-024,-96.353484,199.679273,-96.353484,199.679273,0.000000,0.000000
S1905-36-011,-96.349443,199.680421,-96.349443,199.680421,0.000000,0.000000
S1905-35-012,-96.349303,199.679822,-96.349303,199.679822,0.000000,0.000000
S1905-35-010,-96.349303,199.679822,-96.349303,199.679822,0.000000,0.000000
S1905-35-009,-96.353305,199.679139,-96.353305,199.679139,0.000000,0.000000
S1905-36-004,-96.313142,199.665903,-96.313142,199.665903,0.000000,0.000000
S1905-36-019,-96.301984,199.642839,-96.301984,199.642839,0.000000,0.000000
S1905-36-038,-96.269586,199.640066,-96.269586,199.640066,0.000000,0.000000
S1905-36-008,-96.269586,199.640066,-96.269586,199.640066,0.000000,0.000000
S1805-01-019,-96.267950,199.617758,-96.267950,199.617758,0.000000,0.000000
S1805-01-018,-96.267950,199.617758,-96.267950,199.617758,0.000000,0.000000
S1805-01-011,-96.241465,199.620570,-96.241465,199.620570,0.000000,0.000000
S1805-02-005,-96.258958,199.610330,-96.258958,199.610330,0.000000,0.000000
S1805-02-004,-96.221965,199.605589,-96.221965,199.605589,0.000000,0.000000
S1805-01-017,-96.244080,199.598898,-96.244080,199.598898,0.000000,0.000000
S1805-01-015,-96.196901,199.594397,-96.196901,199.594397,0.000000,0.000000
S1805-01-003,-96.196357,199.580882,-96.196357,199.580882,0.000000,0.000000
S1805-02-003,-96.206627,199.571353,-96.206627,199.571353,0.000000,0.000000
S1805-01-020,-96.207328,199.571066,-96.207328,199.571066,0.000000,0.000000
S1805-01-010,-96.166350,199.574077,-96.166350,199.574077,0.000000,0.000000
S1805-01-007,-96.217092,199.595105,-96.217092,199.595105,0.000000,0.000000
S1905-35-001,-96.257734,199.612600,-96.257734,199.612600,0.000000,0.000000
S1805-02-006,-96.257734,199.612600,-96.257734,199.612600,0.000000,0.000000
S1805-02-007,-96.248567,199.613219,-96.248567,199.613219,0.000000,0.000000
S1805-02-008,-96.256333,199.610230,-96.256333,199.610230,0.000000,0.000000
S1905-35-003,-96.238795,199.616757,-96.238795,199.616757,0.000000,0.000000
S1805-02-009,-96.252790,199.609557,-96.252790,199.609557,0.000000,0.000000
S1905-36-022,-96.435639,199.744004,-96.435639,199.744004,0.000000,0.000000
S1905-36-029,-96.557080,199.830050,-96.557080,199.830050,0.000000,0.000000
S1905-25-007,-96.675989,199.927760,-96.675989,199.927760,0.000000,0.000000
S1905-26-044,-96.646797,199.896617,-96.646797,199.896617,0.000000,0.000000
S1905-26-012,-96.447963,199.864672,-96.447963,199.864672,0.000000,0.000000
S1905-26-021,-96.522966,199.825365,-96.522966,199.825365,0.000000,0.000000
S1905-26-046,-96.513356,199.822831,-96.513356,199.822831,0.000000,0.000000
S1905-26-017,-96.513356,199.822831,-96.513356,199.822831,0.000000,0.000000
S1905-26-018,-96.500128,199.806896,-96.500128,199.806896,0.000000,0.000000
S1905-26-029,-96.485345,199.802021,-96.485345,199.802021,0.000000,0.000000
S1905-26-019,-96.485345,199.802021,-96.485345,199.802021,0.000000,0.000000
S1905-26-045,-96.489017,199.796414,-96.489017,199.796414,0.000000,0.000000
S1905-26-035,-96.489017,199.796414,-96.489017,199.796414,0.000000,0.000000
S1905-26-039,-96.466238,199.800392,-96.466238,199.800392,0.000000,0.000000
S1905-26-025,-96.466238,199.800392,-96.466238,199.800392,0.000000,0.000000
S1905-26-034,-96.502896,199.796576,-96.502896,199.796576,0.000000,0.000000
S1905-26-031,-96.470057,199.814403,-96.470057,199.814403,0.000000,0.000000
S1905-25-001,-97.137224,200.274930,-97.137224,200.274930,0.000000,0.000000
S1906-31-008,-98.534973,201.289961,-98.534973,201.289961,0.000000,0.000000
S1906-30-011,-98.895059,201.559954,-98.895059,201.559954,0.000000,0.000000
S1906-30-042,-98.873552,201.555107,-98.873552,201.555107,0.000000,0.000000
S1906-30-032,-98.873552,201.555107,-98.873552,201.555107,0.000000,0.000000
S1906-30-009,-98.873552,201.555107,-98.873552,201.555107,0.000000,0.000000
S1906-30-048,-98.875495,201.544992,-98.875495,201.544992,0.000000,0.000000
S1906-30-055,-98.870080,201.536943,-98.870080,201.536943,0.000000,0.000000
S1906-30-020,-98.842541,201.542788,-98.842541,201.542788,0.000000,0.000000
S1906-30-017,-98.842541,201.542788,-98.842541,201.542788,0.000000,0.000000
S1906-30-008,-98.842541,201.542788,-98.842541,201.542788,0.000000,0.000000
S1906-30-056,-98.858811,201.531867,-98.858811,201.531867,0.000000,0.000000
S1906-30-029,-98.847078,201.529252,-98.847078,201.529252,0.000000,0.000000
S1906-30-021,-98.847078,201.529252,-98.847078,201.529252,0.000000,0.000000
S1906-30-058,-98.837470,201.531569,-98.837470,201.531569,0.000000,0.000000
S1906-30-054,-98.790500,201.540289,-98.790500,201.540289,0.000000,0.000000
S1906-30-049,-98.790500,201.540289,-98.790500,201.540289,0.000000,0.000000
S1906-30-043,-98.790500,201.540289,-98.790500,201.540289,0.000000,0.000000
S1906-30-037,-98.790500,201.540289,-98.790500,201.540289,0.000000,0.000000
S1906-30-024,-98.790500,201.540289,-98.790500,201.540289,0.000000,0.000000
S1906-30-040,-98.830776,201.539631,-98.830776,201.539631,0.000000,0.000000
S1906-30-035,-99.311342,201.876215,-99.311342,201.876215,0.000000,0.000000
S1906-30-057,-99.317201,201.873713,-99.317201,201.873713,0.000000,0.000000
S1906-30-019,-99.317201,201.873713,-99.317201,201.873713,0.000000,0.000000
S1906-30-007,-99.493825,202.036312,-99.493825,202.036312,0.000000,0.000000
S1906-30-006,-99.493825,202.036312,-99.493825,202.036312,0.000000,0.000000
S1906-30-052,-99.478528,202.024813,-99.478528,202.024813,0.000000,0.000000
S1906-30-022,-99.478528,202.024813,-99.478528,202.024813,0.000000,0.000000
S1906-30-010,-99.514437,202.011270,-99.514437,202.011270,0.000000,0.000000
S1906-30-033,-99.506164,202.011596,-99.506164,202.011596,0.000000,0.000000
S1906-30-016,-99.506164,202.011596,-99.506164,202.011596,0.000000,0.000000
S1906-30-047,-99.502065,202.008049,-99.502065,202.008049,0.000000,0.000000
S1906-30-050,-99.500692,202.004122,-99.500692,202.004122,0.000000,0.000000
S1906-29-004,-99.478420,202.007456,-99.478420,202.007456,0.000000,0.000000
S1906-30-045,-99.484705,202.008720,-99.484705,202.008720,0.000000,0.000000
S1906-31-004,-99.522001,202.024475,-99.522001,202.024475,0.000000,0.000000
S1906-29-019,-100.391258,202.645336,-100.391258,202.645336,0.000000,0.000000
S1906-29-008,-100.380269,202.643636,-100.380269,202.643636,0.000000,0.000000
S1906-29-007,-100.399239,202.634111,-100.399239,202.634111,0.000000,0.000000
S1906-29-021,-100.396026,202.631747,-100.396026,202.631747,0.000000,0.000000
S1906-29-011,-100.361014,202.637647,-100.361014,202.637647,0.000000,0.000000
S1906-29-003,-100.361014,202.637647,-100.361014,202.637647,0.000000,0.000000
S1906-29-015,-50.199645,101.309046,-50.199645,101.309046,0.000000,0.000000
S1906-29-017,121.895571,-2.397561,121.895571,-2.397561,0.000000,0.000000
S1906-20-030,243.681447,-4.869640,243.681447,-4.869640,0.000000,0.000000
S1906-20-061,243.680325,-4.871107,243.680325,-4.871107,0.000000,0.000000
S1906-20-059,243.680325,-4.871107,243.680325,-4.871107,0.000000,0.000000
S1906-20-094,243.680263,-4.870176,243.680263,-4.870176,0.000000,0.000000
S1906-20-036,243.680228,-4.870191,243.680228,-4.870191,0.000000,0.000000
S1906-20-049,121.840074,-2.435113,121.840074,-2.435113,0.000000,0.000000
S1906-20-066,243.680564,-4.870048,243.680564,-4.870048,0.000000,0.000000
S1906-20-064,243.680231,-4.871161,243.680231,-4.871161,0.000000,0.000000
S1906-20-047,243.680231,-4.871161,243.680231,-4.871161,0.000000,0.000000
S1906-21-013,243.658875,-4.880351,243.658875,-4.880351,0.000000,0.000000
S1906-21-017,243.658938,-4.880323,243.658938,-4.880323,0.000000,0.000000
S1906-28-011,243.636783,-4.890788,243.636783,-4.890788,0.000000,0.000000
S1906-28-001,243.594297,-4.912772,243.594297,-4.912772,0.000000,0.000000
S1906-21-003,243.594297,-4.912772,243.594297,-4.912772,0.000000,0.000000
S1906-21-002,243.594297,-4.912772,243.594297,-4.912772,0.000000,0.000000
S1906-28-002,243.592111,-4.911820,243.592111,-4.911820,0.000000,0.000000
S1906-28-014,243.591877,-4.911923,243.591877,-4.911923,0.000000,0.000000
S1906-28-003,243.591738,-4.911985,243.591738,-4.911985,0.000000,0.000000
S1906-21-016,243.565010,-4.924711,243.565010,-4.924711,0.000000,0.000000
S1906-28-020,243.554356,-4.929753,243.554356,-4.929753,0.000000,0.000000
S1906-22-163,243.507217,-4.951939,243.507217,-4.951939,0.000000,0.000000
S1906-22-034,243.503075,-4.953845,243.503075,-4.953845,0.000000,0.000000
S1906-22-023,243.499957,-4.955280,243.499957,-4.955280,0.000000,0.000000
S1906-22-009,243.496154,-4.957032,243.496154,-4.957032,0.000000,0.000000
S1906-22-017,243.491078,-4.959371,243.491078,-4.959371,0.000000,0.000000
S1906-22-058,243.490680,-4.959553,243.490680,-4.959553,0.000000,0.000000
S1906-22-119,243.490574,-4.959601,243.490574,-4.959601,0.000000,0.000000
S1906-22-039,243.490268,-4.960699,243.490268,-4.960699,0.000000,0.000000
S1906-22-038,243.490268,-4.960699,243.490268,-4.960699,0.000000,0.000000
S1906-22-040,243.478858,-4.965012,243.478858,-4.965012,0.000000,0.000000
S1906-22-172,243.463899,-4.972002,243.463899,-4.972002,0.000000,0.000000
S1906-22-198,243.463453,-4.972206,243.463453,-4.972206,0.000000,0.000000
S1906-22-191,243.462733,-4.972539,243.462733,-4.972539,0.000000,0.000000
S1906-22-179,243.462406,-4.972691,243.462406,-4.972691,0.000000,0.000000
S1906-22-193,243.462104,-4.972831,243.462104,-4.972831,0.000000,0.000000
S1906-22-184,243.461199,-4.973254,243.461199,-4.973254,0.000000,0.000000
S1906-22-114,243.460166,-4.974693,243.460166,-4.974693,0.000000,0.000000
S1906-22-050,243.460166,-4.974693,243.460166,-4.974693,0.000000,0.000000
S1906-22-093,243.459828,-4.974852,243.459828,-4.974852,0.000000,0.000000
S1906-22-080,243.459828,-4.974852,243.459828,-4.974852,0.000000,0.000000
S1906-22-055,243.459757,-4.973932,243.459757,-4.973932,0.000000,0.000000
S1906-22-143,243.459111,-4.976167,243.459111,-4.976167,0.000000,0.000000
S1906-22-142,243.459111,-4.976167,243.459111,-4.976167,0.000000,0.000000
S1906-22-015,243.459111,-4.976167,243.459111,-4.976167,0.000000,0.000000
S1906-22-149,243.459162,-4.975190,243.459162,-4.975190,0.000000,0.000000
S1906-22-112,243.459162,-4.975190,243.459162,-4.975190,0.000000,0.000000
S1906-22-125,243.463370,-4.972244,243.463370,-4.972244,0.000000,0.000000
S1906-22-048,243.464105,-4.971908,243.464105,-4.971908,0.000000,0.000000
S1906-22-197,243.461491,-4.973108,243.461491,-4.973108,0.000000,0.000000
S1906-22-178,243.460525,-4.973553,243.460525,-4.973553,0.000000,0.000000
S1906-22-083,243.458950,-4.974280,243.458950,-4.974280,0.000000,0.000000
S1906-22-049,243.456400,-4.976415,243.456400,-4.976415,0.000000,0.000000
S1906-22-031,243.456400,-4.976415,243.456400,-4.976415,0.000000,0.000000
S1906-22-071,243.455024,-4.977050,243.455024,-4.977050,0.000000,0.000000
S1906-22-043,243.455024,-4.977050,243.455024,-4.977050,0.000000,0.000000
S1906-22-056,243.454403,-4.976380,243.454403,-4.976380,0.000000,0.000000
S1906-22-169,243.453003,-4.978940,243.453003,-4.978940,0.000000,0.000000
S1906-22-139,243.453003,-4.978940,243.453003,-4.978940,0.000000,0.000000
S1906-22-100,243.453003,-4.978940,243.453003,-4.978940,0.000000,0.000000
S1906-22-166,243.453281,-4.976900,243.453281,-4.976900,0.000000,0.000000
S1906-22-182,243.452461,-4.979186,243.452461,-4.979186,0.000000,0.000000
S1906-22-135,243.452461,-4.979186,243.452461,-4.979186,0.000000,0.000000
S1906-22-051,243.452461,-4.979186,243.452461,-4.979186,0.000000,0.000000
S1906-22-196,243.452590,-4.977210,243.452590,-4.977210,0.000000,0.000000
S1906-22-044,243.452392,-4.977298,243.452392,-4.977298,0.000000,0.000000
S1906-22-057,243.452286,-4.977345,243.452286,-4.977345,0.000000,0.000000
S1906-22-024,243.452200,-4.977382,243.452200,-4.977382,0.000000,0.000000
S1906-22-086,243.470656,-4.969814,243.470656,-4.969814,0.000000,0.000000
S1906-22-018,243.470656,-4.969814,243.470656,-4.969814,0.000000,0.000000
S1906-22-133,243.472544,-4.967970,243.472544,-4.967970,0.000000,0.000000
S1906-22-173,243.475371,-4.967593,243.475371,-4.967593,0.000000,0.000000
S1906-22-037,243.475371,-4.967593,243.475371,-4.967593,0.000000,0.000000
S1906-22-170,243.474485,-4.967058,243.474485,-4.967058,0.000000,0.000000
S1906-22-140,243.473883,-4.968298,243.473883,-4.968298,0.000000,0.000000
S1906-22-026,243.473883,-4.968298,243.473883,-4.968298,0.000000,0.000000
S1906-22-175,243.473234,-4.969561,243.473234,-4.969561,0.000000,0.000000
S1906-22-087,243.473234,-4.969561,243.473234,-4.969561,0.000000,0.000000
S1906-22-081,243.473234,-4.969561,243.473234,-4.969561,0.000000,0.000000
S1906-22-078,243.473239,-4.968605,243.473239,-4.968605,0.000000,0.000000
S1906-22-010,243.473239,-4.968605,243.473239,-4.968605,0.000000,0.000000
S1906-22-109,243.472865,-4.969737,243.472865,-4.969737,0.000000,0.000000
S1906-22-067,243.472865,-4.969737,243.472865,-4.969737,0.000000,0.000000
S1906-22-029,243.472865,-4.969737,243.472865,-4.969737,0.000000,0.000000
S1906-21-007,243.483351,-4.963901,243.483351,-4.963901,0.000000,0.000000
S1906-21-006,243.483351,-4.963901,243.483351,-4.963901,0.000000,0.000000
S1906-27-001,243.496838,-4.958645,243.496838,-4.958645,0.000000,0.000000
S1906-22-126,243.496838,-4.958645,243.496838,-4.958645,0.000000,0.000000
S1906-22-076,243.496838,-4.958645,243.496838,-4.958645,0.000000,0.000000
S1906-27-015,243.494840,-4.957653,243.494840,-4.957653,0.000000,0.000000
S1906-22-047,243.492870,-4.958560,243.492870,-4.958560,0.000000,0.000000
S1906-22-095,243.489195,-4.962161,243.489195,-4.962161,0.000000,0.000000
S1906-22-094,243.489195,-4.962161,243.489195,-4.962161,0.000000,0.000000
S1906-22-001,243.489195,-4.962161,243.489195,-4.962161,0.000000,0.000000
S1906-22-159,243.487010,-4.962210,243.487010,-4.962210,0.000000,0.000000
S1906-22-124,243.487010,-4.962210,243.487010,-4.962210,0.000000,0.000000
S1906-22-171,243.482773,-4.965113,243.482773,-4.965113,0.000000,0.000000
S1906-22-129,243.482773,-4.965113,243.482773,-4.965113,0.000000,0.000000
S1906-22-128,243.482773,-4.965113,243.482773,-4.965113,0.000000,0.000000
S1906-22-036,243.475924,-4.967297,243.475924,-4.967297,0.000000,0.000000
S1906-22-030,243.475924,-4.967297,243.475924,-4.967297,0.000000,0.000000
S1906-22-152,243.471876,-4.970108,243.471876,-4.970108,0.000000,0.000000
S1906-22-115,243.471876,-4.970108,243.471876,-4.970108,0.000000,0.000000
S1906-22-084,243.471876,-4.970108,243.471876,-4.970108,0.000000,0.000000
S1906-22-154,243.467632,-4.971092,243.467632,-4.971092,0.000000,0.000000
S1906-22-079,243.467632,-4.971092,243.467632,-4.971092,0.000000,0.000000
S1906-22-122,243.463904,-4.972795,243.463904,-4.972795,0.000000,0.000000
S1906-22-107,243.463904,-4.972795,243.463904,-4.972795,0.000000,0.000000
S1906-22-008,243.459310,-4.974892,243.459310,-4.974892,0.000000,0.000000
S1906-22-002,243.459310,-4.974892,243.459310,-4.974892,0.000000,0.000000
S1906-22-011,243.457440,-4.974791,243.457440,-4.974791,0.000000,0.000000
S1906-22-167,243.456422,-4.975256,243.456422,-4.975256,0.000000,0.000000
S1906-22-132,243.454909,-4.976906,243.454909,-4.976906,0.000000,0.000000
S1906-22-068,243.454909,-4.976906,243.454909,-4.976906,0.000000,0.000000
S1906-22-141,121.726381,-2.488466,121.726381,-2.488466,0.000000,0.000000
S1906-22-189,243.449474,-4.978438,243.449474,-4.978438,0.000000,0.000000
S1906-22-188,243.448232,-4.980919,243.448232,-4.980919,0.000000,0.000000
S1906-22-042,243.448232,-4.980919,243.448232,-4.980919,0.000000,0.000000
S1906-22-035,243.448232,-4.980919,243.448232,-4.980919,0.000000,0.000000
S1906-22-187,243.446325,-4.979877,243.446325,-4.979877,0.000000,0.000000
S1906-22-091,243.444018,-4.981874,243.444018,-4.981874,0.000000,0.000000
S1906-22-088,243.444018,-4.981874,243.444018,-4.981874,0.000000,0.000000
S1906-22-127,243.443496,-4.982108,243.443496,-4.982108,0.000000,0.000000
S1906-22-022,243.443496,-4.982108,243.443496,-4.982108,0.000000,0.000000
S1906-22-130,243.443023,-4.981357,243.443023,-4.981357,0.000000,0.000000
S1906-22-102,243.442215,-4.981718,243.442215,-4.981718,0.000000,0.000000
S1906-22-183,243.441905,-4.981859,243.441905,-4.981859,0.000000,0.000000
S1906-22-160,243.441835,-4.981891,243.441835,-4.981891,0.000000,0.000000
S1906-23-015,243.442316,-4.981672,243.442316,-4.981672,0.000000,0.000000
S1906-22-151,243.442301,-4.981679,243.442301,-4.981679,0.000000,0.000000
S1906-22-138,243.442282,-4.981688,243.442282,-4.981688,0.000000,0.000000
S1906-22-097,243.443325,-4.981225,243.443325,-4.981225,0.000000,0.000000
S1906-22-162,243.444060,-4.983787,243.444060,-4.983787,0.000000,0.000000
S1906-22-113,243.444060,-4.983787,243.444060,-4.983787,0.000000,0.000000
S1906-22-106,243.444060,-4.983787,243.444060,-4.983787,0.000000,0.000000
S1906-22-090,243.444060,-4.983787,243.444060,-4.983787,0.000000,0.000000
S1906-22-195,243.442596,-4.981584,243.442596,-4.981584,0.000000,0.000000
S1906-22-176,243.440694,-4.983408,243.440694,-4.983408,0.000000,0.000000
S1906-22-120,243.440694,-4.983408,243.440694,-4.983408,0.000000,0.000000
S1906-22-180,243.439933,-4.982796,243.439933,-4.982796,0.000000,0.000000
S1906-22-181,243.439059,-4.984154,243.439059,-4.984154,0.000000,0.000000
S1906-22-123,243.439059,-4.984154,243.439059,-4.984154,0.000000,0.000000
S1906-22-003,243.438897,-4.983264,243.438897,-4.983264,0.000000,0.000000
S1906-22-098,243.438504,-4.983442,243.438504,-4.983442,0.000000,0.000000
S1906-22-073,243.437941,-4.984654,243.437941,-4.984654,0.000000,0.000000
S1906-22-020,243.437941,-4.984654,243.437941,-4.984654,0.000000,0.000000
S1906-22-158,243.437554,-4.984827,243.437554,-4.984827,0.000000,0.000000
S1906-22-074,243.437554,-4.984827,243.437554,-4.984827,0.000000,0.000000
S1906-22-186,243.437294,-4.983983,243.437294,-4.983983,0.000000,0.000000
S1906-22-075,243.436921,-4.984147,243.436921,-4.984147,0.000000,0.000000
S1906-22-032,243.436903,-4.984156,243.436903,-4.984156,0.000000,0.000000
S1906-22-085,243.436630,-4.984279,243.436630,-4.984279,0.000000,0.000000
S1906-22-089,243.436570,-4.984307,243.436570,-4.984307,0.000000,0.000000
S1906-22-104,243.436686,-4.984254,243.436686,-4.984254,0.000000,0.000000
S1906-22-060,243.440477,-4.983510,243.440477,-4.983510,0.000000,0.000000
S1906-22-045,243.440477,-4.983510,243.440477,-4.983510,0.000000,0.000000
S1906-22-066,243.458678,-4.974210,243.458678,-4.974210,0.000000,0.000000
S1906-22-033,243.458585,-4.974251,243.458585,-4.974251,0.000000,0.000000
S1906-22-007,243.456767,-4.975069,243.456767,-4.975069,0.000000,0.000000
S1906-22-021,243.456235,-4.975309,243.456235,-4.975309,0.000000,0.000000
S1906-22-147,243.455860,-4.976436,243.455860,-4.976436,0.000000,0.000000
S1906-22-004,243.455860,-4.976436,243.455860,-4.976436,0.000000,0.000000
S1906-22-028,243.455872,-4.975471,243.455872,-4.975471,0.000000,0.000000
S1906-22-014,243.455735,-4.975541,243.455735,-4.975541,0.000000,0.000000
S1906-22-185,243.455683,-4.975565,243.455683,-4.975565,0.000000,0.000000
S1906-28-015,243.523617,-4.945259,243.523617,-4.945259,0.000000,0.000000
S1906-28-004,243.523617,-4.945259,243.523617,-4.945259,0.000000,0.000000
S1906-28-024,243.524036,-4.945062,243.524036,-4.945062,0.000000,0.000000
S1906-21-005,243.524036,-4.945062,243.524036,-4.945062,0.000000,0.000000
S1906-28-019,243.554245,-4.929803,243.554245,-4.929803,0.000000,0.000000
S1906-21-008,243.574148,-4.920385,243.574148,-4.920385,0.000000,0.000000
S1906-28-021,243.573912,-4.920497,243.573912,-4.920497,0.000000,0.000000
S1906-28-013,243.573082,-4.922794,243.573082,-4.922794,0.000000,0.000000
S1906-28-009,243.573082,-4.922794,243.573082,-4.922794,0.000000,0.000000
S1906-28-005,243.573082,-4.922794,243.573082,-4.922794,0.000000,0.000000
S1906-28-016,243.572971,-4.920932,243.572971,-4.920932,0.000000,0.000000
S1906-28-010,243.572719,-4.921046,243.572719,-4.921046,0.000000,0.000000
S1906-28-006,243.572508,-4.921142,243.572508,-4.921142,0.000000,0.000000
S1906-28-012,243.572383,-4.921199,243.572383,-4.921199,0.000000,0.000000
S1906-28-017,243.573118,-4.920865,243.573118,-4.920865,0.000000,0.000000
S1906-21-011,243.617088,-4.900090,243.617088,-4.900090,0.000000,0.000000
S1906-21-012,243.616848,-4.900199,243.616848,-4.900199,0.000000,0.000000
S1906-29-005,243.743401,-4.840462,243.743401,-4.840462,0.000000,0.000000
S1906-29-012,243.757218,-4.833944,243.757218,-4.833944,0.000000,0.000000
S1906-20-014,121.890286,-2.413421,121.890286,-2.413421,0.000000,0.000000
S1906-20-084,-100.348966,202.605789,-100.348966,202.605789,0.000000,0.000000
S1906-20-068,-113.821953,-209.696140,-113.821953,-209.696140,0.000000,0.000000
S1906-20-093,-100.373055,202.598011,-100.373055,202.598011,0.000000,0.000000
S1906-20-069,-100.373055,202.598011,-100.373055,202.598011,0.000000,0.000000
S1906-20-031,-113.821605,-209.696205,-113.821605,-209.696205,0.000000,0.000000
S1906-20-045,243.781310,-4.826937,243.781310,-4.826937,0.000000,0.000000
S1906-20-011,243.781310,-4.826937,243.781310,-4.826937,0.000000,0.000000
S1906-20-010,243.781310,-4.826937,243.781310,-4.826937,0.000000,0.000000
S1906-29-023,243.774541,-4.823806,243.774541,-4.823806,0.000000,0.000000
S1906-20-070,243.764026,-4.828552,243.764026,-4.828552,0.000000,0.000000
S1906-20-097,243.751944,-4.834006,243.751944,-4.834006,0.000000,0.000000
S1906-20-102,243.751917,-4.834019,243.751917,-4.834019,0.000000,0.000000
S1906-29-022,243.742987,-4.839008,243.742987,-4.839008,0.000000,0.000000
S1906-20-098,243.742987,-4.839008,243.742987,-4.839008,0.000000,0.000000
S1906-29-014,243.728246,-4.844703,243.728246,-4.844703,0.000000,0.000000
S1906-20-103,243.728100,-4.844770,243.728100,-4.844770,0.000000,0.000000
S1906-20-100,243.712508,-4.851808,243.712508,-4.851808,0.000000,0.000000
S1906-20-101,243.706604,-4.854475,243.706604,-4.854475,0.000000,0.000000
S1906-20-104,243.706538,-4.854505,243.706538,-4.854505,0.000000,0.000000
S1906-30-014,243.695357,-4.859556,243.695357,-4.859556,0.000000,0.000000
S1906-30-053,243.681686,-4.865735,243.681686,-4.865735,0.000000,0.000000
S1906-30-018,243.673982,-4.870174,243.673982,-4.870174,0.000000,0.000000
S1906-19-074,243.673982,-4.870174,243.673982,-4.870174,0.000000,0.000000
S1906-30-051,243.666501,-4.872600,243.666501,-4.872600,0.000000,0.000000
S1906-30-031,243.665763,-4.874859,243.665763,-4.874859,0.000000,0.000000
S1906-30-027,243.665763,-4.874859,243.665763,-4.874859,0.000000,0.000000
S1906-30-013,243.665763,-4.874859,243.665763,-4.874859,0.000000,0.000000
S1906-30-036,243.645462,-4.882084,243.645462,-4.882084,0.000000,0.000000
S1906-30-026,243.605258,-4.900696,243.605258,-4.900696,0.000000,0.000000
S1906-19-077,243.590031,-4.907568,243.590031,-4.907568,0.000000,0.000000
S1905-25-006,243.582895,-4.910789,243.582895,-4.910789,0.000000,0.000000
S1905-24-009,243.572099,-4.915663,243.572099,-4.915663,0.000000,0.000000
S1905-24-020,243.548084,-4.926512,243.548084,-4.926512,0.000000,0.000000
S1905-24-007,243.539861,-4.931187,243.539861,-4.931187,0.000000,0.000000
S1905-24-005,243.539861,-4.931187,243.539861,-4.931187,0.000000,0.000000
S1905-24-097,243.533941,-4.933861,243.533941,-4.933861,0.000000,0.000000
S1905-24-074,243.533941,-4.933861,243.533941,-4.933861,0.000000,0.000000
S1905-25-021,243.533682,-4.933030,243.533682,-4.933030,0.000000,0.000000
S1905-25-016,243.533329,-4.933199,243.533329,-4.933199,0.000000,0.000000
S1905-25-020,243.532750,-4.934430,243.532750,-4.934430,0.000000,0.000000
S1905-25-017,243.532750,-4.934430,243.532750,-4.934430,0.000000,0.000000
S1905-25-019,243.532635,-4.934486,243.532635,-4.934486,0.000000,0.000000
S1905-25-018,243.532635,-4.934486,243.532635,-4.934486,0.000000,0.000000
S1905-24-015,121.765411,-2.467154,121.765411,-2.467154,0.000000,0.000000
S1905-24-100,243.517971,-4.940098,243.517971,-4.940098,0.000000,0.000000
S1905-24-093,243.515138,-4.941375,243.515138,-4.941375,0.000000,0.000000
S1905-24-039,243.511281,-4.943114,243.511281,-4.943114,0.000000,0.000000
S1905-24-049,243.495500,-4.950232,243.495500,-4.950232,0.000000,0.000000
S1905-24-070,243.494804,-4.951508,243.494804,-4.951508,0.000000,0.000000
S1905-24-069,243.494804,-4.951508,243.494804,-4.951508,0.000000,0.000000
S1905-24-057,243.494940,-4.950489,243.494940,-4.950489,0.000000,0.000000
S1905-24-075,243.492619,-4.951528,243.492619,-4.951528,0.000000,0.000000
S1905-24-073,243.485323,-4.954817,243.485323,-4.954817,0.000000,0.000000
S1905-26-010,243.482925,-4.955888,243.482925,-4.955888,0.000000,0.000000
S1905-26-020,243.479114,-4.957584,243.479114,-4.957584,0.000000,0.000000
S1905-26-009,243.477389,-4.958351,243.477389,-4.958351,0.000000,0.000000
S1905-26-022,243.477069,-4.958497,243.477069,-4.958497,0.000000,0.000000
S1905-26-023,243.476663,-4.959640,243.476663,-4.959640,0.000000,0.000000
S1905-26-014,243.476663,-4.959640,243.476663,-4.959640,0.000000,0.000000
S1905-26-032,121.738350,-2.479332,121.738350,-2.479332,0.000000,0.000000
S1905-26-041,243.466197,-4.963315,243.466197,-4.963315,0.000000,0.000000
S1905-23-025,243.455599,-4.968019,243.455599,-4.968019,0.000000,0.000000
S1905-23-003,243.453802,-4.968816,243.453802,-4.968816,0.000000,0.000000
S1905-26-024,243.443310,-4.973565,243.443310,-4.973565,0.000000,0.000000
S1905-27-016,243.442786,-4.973804,243.442786,-4.973804,0.000000,0.000000
S1905-27-013,243.441255,-4.974498,243.441255,-4.974498,0.000000,0.000000
S1905-27-011,243.441207,-4.974520,243.441207,-4.974520,0.000000,0.000000
S1905-27-014,243.440596,-4.974798,243.440596,-4.974798,0.000000,0.000000
S1905-27-017,243.439873,-4.975126,243.439873,-4.975126,0.000000,0.000000
S1905-27-015,243.439757,-4.975179,243.439757,-4.975179,0.000000,0.000000
S1905-27-012,243.439729,-4.975192,243.439729,-4.975192,0.000000,0.000000
S1905-27-019,243.439702,-4.975204,243.439702,-4.975204,0.000000,0.000000
S1905-27-018,243.442562,-4.973905,243.442562,-4.973905,0.000000,0.000000
S1905-26-040,243.444520,-4.973016,243.444520,-4.973016,0.000000,0.000000
S1905-26-038,243.445143,-4.972733,243.445143,-4.972733,0.000000,0.000000
S1905-27-004,243.445030,-4.972785,243.445030,-4.972785,0.000000,0.000000
S1905-27-006,243.446524,-4.972129,243.446524,-4.972129,0.000000,0.000000
S1905-22-004,243.446416,-4.972178,243.446416,-4.972178,0.000000,0.000000
S1905-27-007,243.446312,-4.972226,243.446312,-4.972226,0.000000,0.000000
S1905-22-005,243.446418,-4.973137,243.446418,-4.973137,0.000000,0.000000
S1905-22-001,243.446418,-4.973137,243.446418,-4.973137,0.000000,0.000000
S1905-22-002,243.446384,-4.972196,243.446384,-4.972196,0.000000,0.000000
S1905-23-002,243.451509,-4.969836,243.451509,-4.969836,0.000000,0.000000
S1905-23-024,243.457309,-4.967260,243.457309,-4.967260,0.000000,0.000000
S1905-26-037,243.459276,-4.966387,243.459276,-4.966387,0.000000,0.000000
S1905-23-001,243.465379,-4.963678,243.465379,-4.963678,0.000000,0.000000
S1905-26-042,243.482730,-4.957915,243.482730,-4.957915,0.000000,0.000000
S1905-26-013,243.482730,-4.957915,243.482730,-4.957915,0.000000,0.000000
S1905-26-003,243.482730,-4.957915,243.482730,-4.957915,0.000000,0.000000
S1905-26-028,243.481429,-4.956595,243.481429,-4.956595,0.000000,0.000000
S1905-26-011,243.479828,-4.958283,243.479828,-4.958283,0.000000,0.000000
S1905-25-012,243.479828,-4.958283,243.479828,-4.958283,0.000000,0.000000
S1905-26-033,243.476525,-4.959782,243.476525,-4.959782,0.000000,0.000000
S1905-25-014,243.476525,-4.959782,243.476525,-4.959782,0.000000,0.000000
S1905-26-006,243.476067,-4.959991,243.476067,-4.959991,0.000000,0.000000
S1905-26-002,243.476067,-4.959991,243.476067,-4.959991,0.000000,0.000000
S1905-26-036,243.476091,-4.959023,243.476091,-4.959023,0.000000,0.000000
S1905-26-043,121.738052,-2.479505,121.738052,-2.479505,0.000000,0.000000
S1905-25-015,243.475544,-4.959258,243.475544,-4.959258,0.000000,0.000000
S1905-25-008,243.475265,-4.959381,243.475265,-4.959381,0.000000,0.000000
S1905-26-030,243.475253,-4.959388,243.475253,-4.959388,0.000000,0.000000
S1905-24-096,243.483289,-4.956698,243.483289,-4.956698,0.000000,0.000000
S1905-24-076,243.483289,-4.956698,243.483289,-4.956698,0.000000,0.000000
S1905-24-016,243.482103,-4.956280,243.482103,-4.956280,0.000000,0.000000
S1905-24-079,243.481651,-4.956486,243.481651,-4.956486,0.000000,0.000000
S1905-24-058,243.481070,-4.957708,243.481070,-4.957708,0.000000,0.000000
S1905-24-014,243.481070,-4.957708,243.481070,-4.957708,0.000000,0.000000
S1905-23-010,243.481057,-4.956757,243.481057,-4.956757,0.000000,0.000000
S1905-24-061,243.480794,-4.957833,243.480794,-4.957833,0.000000,0.000000
S1905-24-037,243.480794,-4.957833,243.480794,-4.957833,0.000000,0.000000
S1905-24-019,243.480857,-4.956846,243.480857,-4.956846,0.000000,0.000000
S1905-24-068,243.480755,-4.956892,243.480755,-4.956892,0.000000,0.000000
S1905-25-005,243.557041,-4.922462,243.557041,-4.922462,0.000000,0.000000
S1905-24-048,243.556838,-4.922575,243.556838,-4.922575,0.000000,0.000000
S1905-24-094,243.556805,-4.922589,243.556805,-4.922589,0.000000,0.000000
S1906-19-021,243.608120,-4.899404,243.608120,-4.899404,0.000000,0.000000
S1906-30-003,243.645695,-4.881975,243.645695,-4.881975,0.000000,0.000000
S1906-29-010,243.706655,-4.854449,243.706655,-4.854449,0.000000,0.000000
S1906-29-018,-113.819561,-209.675404,-113.819561,-209.675404,0.000000,0.000000
S1906-32-013,-113.812180,-209.619090,-113.812180,-209.619090,0.000000,0.000000
S1906-29-013,-113.812122,-209.617362,-113.812122,-209.617362,0.000000,0.000000
S1906-28-025,-113.812971,-209.616372,-113.812971,-209.616372,0.000000,0.000000
S1906-28-022,-113.812971,-209.616372,-113.812971,-209.616372,0.000000,0.000000
S1906-33-009,-100.943966,202.674293,-100.943966,202.674293,0.000000,0.000000
S1906-33-001,-100.947303,202.672704,-100.947303,202.672704,0.000000,0.000000
S1906-33-011,-100.945720,202.672851,-100.945720,202.672851,0.000000,0.000000
S1906-32-031,243.537920,-4.581895,243.537920,-4.581895,0.000000,0.000000
S1906-32-015,243.537920,-4.581895,243.537920,-4.581895,0.000000,0.000000
S1906-32-034,243.537790,-4.581958,243.537790,-4.581958,0.000000,0.000000
S1906-32-007,243.537790,-4.581958,243.537790,-4.581958,0.000000,0.000000
S1906-32-028,243.537966,-4.580916,243.537966,-4.580916,0.000000,0.000000
S1806-05-188,243.251448,-4.497024,243.251448,-4.497024,0.000000,0.000000
S1806-05-213,243.251110,-4.498150,243.251110,-4.498150,0.000000,0.000000
S1806-05-115,243.251110,-4.498150,243.251110,-4.498150,0.000000,0.000000
S1806-05-122,243.251198,-4.497151,243.251198,-4.497151,0.000000,0.000000
S1806-05-224,243.226893,-4.489716,243.226893,-4.489716,0.000000,0.000000
S1806-05-172,243.226293,-4.490008,243.226293,-4.490008,0.000000,0.000000
S1806-05-191,243.225947,-4.490176,243.225947,-4.490176,0.000000,0.000000
S1806-05-210,243.224978,-4.492555,243.224978,-4.492555,0.000000,0.000000
S1806-05-077,243.224978,-4.492555,243.224978,-4.492555,0.000000,0.000000
S1806-05-034,243.224978,-4.492555,243.224978,-4.492555,0.000000,0.000000
S1806-05-044,243.224111,-4.493920,243.224111,-4.493920,0.000000,0.000000
S1806-05-042,243.224111,-4.493920,243.224111,-4.493920,0.000000,0.000000
S1806-05-036,243.224111,-4.493920,243.224111,-4.493920,0.000000,0.000000
S1806-05-035,243.224111,-4.493920,243.224111,-4.493920,0.000000,0.000000
S1806-05-154,243.224214,-4.491958,243.224214,-4.491958,0.000000,0.000000
S1806-05-056,243.224214,-4.491958,243.224214,-4.491958,0.000000,0.000000
S1806-05-047,243.224032,-4.491085,243.224032,-4.491085,0.000000,0.000000
S1806-05-174,243.223481,-4.492299,243.223481,-4.492299,0.000000,0.000000
S1806-05-136,243.223481,-4.492299,243.223481,-4.492299,0.000000,0.000000
S1806-05-168,243.223325,-4.492381,243.223325,-4.492381,0.000000,0.000000
S1806-05-078,243.223325,-4.492381,243.223325,-4.492381,0.000000,0.000000
S1806-05-238,243.223467,-4.491358,243.223467,-4.491358,0.000000,0.000000
S1806-05-232,-114.472401,-209.536862,-114.472401,-209.536862,0.000000,0.000000
S1806-05-030,-114.472399,-209.536824,-114.472399,-209.536824,0.000000,0.000000
S1806-05-155,-114.472394,-209.536670,-114.472394,-209.536670,0.000000,0.000000
S1806-05-087,-114.472385,-209.536425,-114.472385,-209.536425,0.000000,0.000000
S1806-05-091,-114.473234,-209.535617,-114.473234,-209.535617,0.000000,0.000000
S1806-05-090,-114.473234,-209.535617,-114.473234,-209.535617,0.000000,0.000000
S1806-05-029,-114.473231,-209.535519,-114.473231,-209.535519,0.000000,0.000000
S1806-05-028,-114.473231,-209.535519,-114.473231,-209.535519,0.000000,0.000000
S1806-05-027,-114.550079,-209.527586,-114.550079,-209.527586,0.000000,0.000000
S1806-05-229,-114.589418,-209.508316,-114.589418,-209.508316,0.000000,0.000000
S1806-05-157,-114.589418,-209.508316,-114.589418,-209.508316,0.000000,0.000000
S1806-05-108,-114.589418,-209.508316,-114.589418,-209.508316,0.000000,0.000000
S1806-05-102,-114.589418,-209.508316,-114.589418,-209.508316,0.000000,0.000000
S1806-05-097,-114.589418,-209.508316,-114.589418,-209.508316,0.000000,0.000000
S1806-05-065,-114.585781,-209.504263,-114.585781,-209.504263,0.000000,0.000000
S1806-05-116,-114.588184,-209.497294,-114.588184,-209.497294,0.000000,0.000000
S1806-05-107,-114.588184,-209.497294,-114.588184,-209.497294,0.000000,0.000000
S1806-05-070,-114.588184,-209.497294,-114.588184,-209.497294,0.000000,0.000000
S1806-05-064,-114.588184,-209.497294,-114.588184,-209.497294,0.000000,0.000000
S1806-05-114,-114.585479,-209.494939,-114.585479,-209.494939,0.000000,0.000000
S1806-05-076,-114.588728,-209.487118,-114.588728,-209.487118,0.000000,0.000000
S1806-05-069,-114.588728,-209.487118,-114.588728,-209.487118,0.000000,0.000000
S1806-05-066,-114.588728,-209.487118,-114.588728,-209.487118,0.000000,0.000000
S1806-05-049,-114.588728,-209.487118,-114.588728,-209.487118,0.000000,0.000000
S1806-05-045,-114.588728,-209.487118,-114.588728,-209.487118,0.000000,0.000000
S1806-05-234,-114.588382,-209.476609,-114.588382,-209.476609,0.000000,0.000000
S1806-05-208,-114.588382,-209.476609,-114.588382,-209.476609,0.000000,0.000000
S1806-05-160,-114.588382,-209.476609,-114.588382,-209.476609,0.000000,0.000000
S1806-05-113,-114.588382,-209.476609,-114.588382,-209.476609,0.000000,0.000000
S1806-05-055,-114.588382,-209.476609,-114.588382,-209.476609,0.000000,0.000000
S1806-05-124,-114.586411,-209.470093,-114.586411,-209.470093,0.000000,0.000000
S1806-05-085,-114.586411,-209.470093,-114.586411,-209.470093,0.000000,0.000000
S1806-05-067,-114.586411,-209.470093,-114.586411,-209.470093,0.000000,0.000000
S1806-05-211,-114.586409,-209.470007,-114.586409,-209.470007,0.000000,0.000000
S1806-05-106,-114.586409,-209.470007,-114.586409,-209.470007,0.000000,0.000000
S1806-05-054,-114.586409,-209.470007,-114.586409,-209.470007,0.000000,0.000000
S1806-05-230,-114.585398,-209.466062,-114.585398,-209.466062,0.000000,0.000000
S1806-05-126,-114.585398,-209.466062,-114.585398,-209.466062,0.000000,0.000000
S1806-05-071,-114.585252,-209.461719,-114.585252,-209.461719,0.000000,0.000000
S1806-05-059,-114.585252,-209.461719,-114.585252,-209.461719,0.000000,0.000000
S1806-05-227,-114.584349,-209.461058,-114.584349,-209.461058,0.000000,0.000000
S1806-05-207,-114.584275,-209.458965,-114.584275,-209.458965,0.000000,0.000000
S1806-05-133,-114.584228,-209.457627,-114.584228,-209.457627,0.000000,0.000000
S1806-05-221,-114.584195,-209.456643,-114.584195,-209.456643,0.000000,0.000000
S1806-05-179,-114.586749,-209.454350,-114.586749,-209.454350,0.000000,0.000000
S1806-05-175,-114.586749,-209.454350,-114.586749,-209.454350,0.000000,0.000000
S1806-05-170,-114.586749,-209.454350,-114.586749,-209.454350,0.000000,0.000000
S1806-05-140,-114.586749,-209.454350,-114.586749,-209.454350,0.000000,0.000000
S1806-05-166,-114.585029,-209.455347,-114.585029,-209.455347,0.000000,0.000000
S1806-05-134,-114.585029,-209.455347,-114.585029,-209.455347,0.000000,0.000000
S1806-05-237,-114.585026,-209.455228,-114.585026,-209.455228,0.000000,0.000000
S1806-05-216,-114.585026,-209.455228,-114.585026,-209.455228,0.000000,0.000000
S1806-05-217,-114.585022,-209.455045,-114.585022,-209.455045,0.000000,0.000000
S1806-05-214,-114.585022,-209.455045,-114.585022,-209.455045,0.000000,0.000000
S1806-05-182,-114.584145,-209.454978,-114.584145,-209.454978,0.000000,0.000000
S1806-05-187,-114.585001,-209.454329,-114.585001,-209.454329,0.000000,0.000000
S1806-05-177,-114.585001,-209.454329,-114.585001,-209.454329,0.000000,0.000000
S1806-05-192,-114.585842,-209.453199,-114.585842,-209.453199,0.000000,0.000000
S1806-05-184,-114.585842,-209.453199,-114.585842,-209.453199,0.000000,0.000000
S1806-05-171,-114.585842,-209.453199,-114.585842,-209.453199,0.000000,0.000000
S1806-05-228,-114.584115,-209.454007,-114.584115,-209.454007,0.000000,0.000000
S1806-05-209,-114.585826,-209.452696,-114.585826,-209.452696,0.000000,0.000000
S1806-05-197,-114.585826,-209.452696,-114.585826,-209.452696,0.000000,0.000000
S1806-05-190,-114.585826,-209.452696,-114.585826,-209.452696,0.000000,0.000000
S1806-05-189,-114.584115,-209.454016,-114.584115,-209.454016,0.000000,0.000000
S1806-05-193,-114.586680,-209.451853,-114.586680,-209.451853,0.000000,0.000000
S1806-05-181,-114.586680,-209.451853,-114.586680,-209.451853,0.000000,0.000000
S1806-05-173,-114.586680,-209.451853,-114.586680,-209.451853,0.000000,0.000000
S1806-05-165,-114.586680,-209.451853,-114.586680,-209.451853,0.000000,0.000000
S1806-05-202,-114.584960,-209.452872,-114.584960,-209.452872,0.000000,0.000000
S1806-05-186,-114.584960,-209.452872,-114.584960,-209.452872,0.000000,0.000000
S1806-05-223,-114.584103,-209.453498,-114.584103,-209.453498,0.000000,0.000000
S1806-05-103,-114.588542,-209.455168,-114.588542,-209.455168,0.000000,0.000000
S1806-05-098,-114.588542,-209.455168,-114.588542,-209.455168,0.000000,0.000000
S1806-05-075,-114.588542,-209.455168,-114.588542,-209.455168,0.000000,0.000000
S1806-05-074,-114.588542,-209.455168,-114.588542,-209.455168,0.000000,0.000000
S1806-05-068,-114.588542,-209.455168,-114.588542,-209.455168,0.000000,0.000000
S1806-05-060,-114.588542,-209.455168,-114.588542,-209.455168,0.000000,0.000000
S1806-05-222,-114.584979,-209.453526,-114.584979,-209.453526,0.000000,0.000000
S1806-05-063,-114.584979,-209.453526,-114.584979,-209.453526,0.000000,0.000000
S1806-05-084,-114.586572,-209.448622,-114.586572,-209.448622,0.000000,0.000000
S1806-05-081,-114.586572,-209.448622,-114.586572,-209.448622,0.000000,0.000000
S1806-04-064,-114.586572,-209.448622,-114.586572,-209.448622,0.000000,0.000000
S1806-04-019,-114.586572,-209.448622,-114.586572,-209.448622,0.000000,0.000000
S1806-04-038,-114.583969,-209.449422,-114.583969,-209.449422,0.000000,0.000000
S1806-04-041,-114.586512,-209.446805,-114.586512,-209.446805,0.000000,0.000000
S1806-04-040,-114.586512,-209.446805,-114.586512,-209.446805,0.000000,0.000000
S1806-04-039,-114.586512,-209.446805,-114.586512,-209.446805,0.000000,0.000000
S1806-04-018,-114.586512,-209.446805,-114.586512,-209.446805,0.000000,0.000000
S1806-04-037,-114.584745,-209.446236,-114.584745,-209.446236,0.000000,0.000000
S1806-04-027,-114.584745,-209.446236,-114.584745,-209.446236,0.000000,0.000000
S1806-04-051,-114.585583,-209.444968,-114.585583,-209.444968,0.000000,0.000000
S1806-04-044,-114.585583,-209.444968,-114.585583,-209.444968,0.000000,0.000000
S1806-04-028,-114.585583,-209.444968,-114.585583,-209.444968,0.000000,0.000000
S1806-04-226,-114.585571,-209.444537,-114.585571,-209.444537,0.000000,0.000000
S1806-04-050,-114.585571,-209.444537,-114.585571,-209.444537,0.000000,0.000000
S1806-04-046,-114.585571,-209.444537,-114.585571,-209.444537,0.000000,0.000000
S1906-33-012,-114.584587,-209.441346,-114.584587,-209.441346,0.000000,0.000000
S1906-33-007,-114.584587,-209.441346,-114.584587,-209.441346,0.000000,0.000000
S1906-33-005,-114.584581,-209.441120,-114.584581,-209.441120,0.000000,0.000000
S1906-33-004,-114.584581,-209.441120,-114.584581,-209.441120,0.000000,0.000000
S1906-33-008,-114.583739,-209.442237,-114.583739,-209.442237,0.000000,0.000000
S1806-04-017,-114.584768,-209.447085,-114.584768,-209.447085,0.000000,0.000000
S1806-04-009,-114.584768,-209.447085,-114.584768,-209.447085,0.000000,0.000000
S1806-04-002,-114.584739,-209.446278,-114.584739,-209.446278,0.000000,0.000000
S1806-04-001,-114.584739,-209.446278,-114.584739,-209.446278,0.000000,0.000000
S1806-04-021,-114.584726,-209.445901,-114.584726,-209.445901,0.000000,0.000000
S1806-04-006,-114.584726,-209.445901,-114.584726,-209.445901,0.000000,0.000000
S1806-04-011,-114.583861,-209.446248,-114.583861,-209.446248,0.000000,0.000000
S1806-04-059,-114.583854,-209.446005,-114.583854,-209.446005,0.000000,0.000000
S1806-04-062,-114.586410,-209.443680,-114.586410,-209.443680,0.000000,0.000000
S1806-04-007,-114.586410,-209.443680,-114.586410,-209.443680,0.000000,0.000000
S1806-04-005,-114.586410,-209.443680,-114.586410,-209.443680,0.000000,0.000000
S1806-04-003,-114.586410,-209.443680,-114.586410,-209.443680,0.000000,0.000000
S1806-05-212,-114.583954,-209.449442,-114.583954,-209.449442,0.000000,0.000000
S1806-04-060,-114.585581,-209.445969,-114.585581,-209.445969,0.000000,0.000000
S1806-04-045,-114.585581,-209.445969,-114.585581,-209.445969,0.000000,0.000000
S1806-04-015,-114.585581,-209.445969,-114.585581,-209.445969,0.000000,0.000000
S1806-04-026,-114.583850,-209.446809,-114.583850,-209.446809,0.000000,0.000000
S1806-04-043,-114.583825,-209.446244,-114.583825,-209.446244,0.000000,0.000000
S1806-04-012,-114.583809,-209.445875,-114.583809,-209.445875,0.000000,0.000000
S1806-04-065,-114.584655,-209.445001,-114.584655,-209.445001,0.000000,0.000000
S1806-04-016,-114.584655,-209.445001,-114.584655,-209.445001,0.000000,0.000000
S1806-04-035,-114.583787,-209.445335,-114.583787,-209.445335,0.000000,0.000000
S1806-04-228,-114.584638,-209.444598,-114.584638,-209.444598,0.000000,0.000000
S1806-04-068,-114.584638,-209.444598,-114.584638,-209.444598,0.000000,0.000000
S1806-04-066,-114.584631,-209.444431,-114.584631,-209.444431,0.000000,0.000000
S1806-04-014,-114.584631,-209.444431,-114.584631,-209.444431,0.000000,0.000000
S1806-04-032,-114.583769,-209.444943,-114.583769,-209.444943,0.000000,0.000000
S1806-05-148,-114.583887,-209.447474,-114.583887,-209.447474,0.000000,0.000000
S1806-05-218,-114.587301,-209.444490,-114.587301,-209.444490,0.000000,0.000000
S1806-05-196,-114.587301,-209.444490,-114.587301,-209.444490,0.000000,0.000000
S1806-05-183,-114.587301,-209.444490,-114.587301,-209.444490,0.000000,0.000000
S1806-04-061,-114.587301,-209.444490,-114.587301,-209.444490,0.000000,0.000000
S1806-04-042,-114.587301,-209.444490,-114.587301,-209.444490,0.000000,0.000000
S1806-05-131,-114.584838,-209.449505,-114.584838,-209.449505,0.000000,0.000000
...